LAMMPS (9 Jan 2009)
include         seeds.txt
variable        seed1      equal    99462
variable        seed2      equal    56068
variable        seed3      equal    48059
variable        seed4      equal    31821
variable        seed5      equal    32556
dimension       3
boundary	p f p
units           lj

atom_style      cc/full
neighbor        1.0 bin
neigh_modify    every 1 check yes exclude type 1 4 exclude type 3 4 exclude type 4 4 exclude type 1 5 exclude type 2 5 exclude type 3 5 exclude type 4 5 exclude type 5 5

read_restart	data/restart.rheo.960000
  orthogonal box = (-5 0 -10) to (105 20 10)
  264470 atoms
  254124 bonds
  169416 angles
  254124 dihedrals

group           cells union rbc platelet bank
86072 atoms in group cells

bond_style      cell
bond_coeff      1 rbc 0.1 1.8 100.0 2.0 5.47 16.41 0.0
bond_coeff      2 plat 0.1 1.8 10000.0 2.0 0.0 0.0 0.0
bond_coeff      3 bond 2.222e4 128.0e-3 0.0 0.0 0.0 0.3 0	#dummy bonds defined here for future use
bond_coeff      4 bond 2.222e4 128.0e-3 0.0 0.0 0.0 0.3 0
bond_coeff      5 bond 2.222e4 128.0e-3 0.0 0.0 0.0 0.0 0
bond_coeff      6 bond 2.222e4 128.0e-3 0.0 0.0 0.0 0.0 0

angle_style     area/volume
angle_coeff     1 4900.0 132.6  5000.0 92.66 100.0 0.0
angle_coeff     2 5000.0 19.627 5000.0 6.002 100.0 0.0

dihedral_style  bend
dihedral_coeff  1 6.025 0.0 0.0
dihedral_coeff  2 100.0 0.0 0.0

pair_style      hybrid/overlay dpd 1.0 99462 dpd/misc 1.0 56068 cc 1.0 48059 0 105
pair_coeff      1 1 dpd 5.0 20.0 2.0 0.2 1.58
pair_coeff      1 2 dpd 0.0 10.0 1.414 0.2 1.5
pair_coeff      1 3 dpd 0.0 45.0 3.0 0.2 1.5
pair_coeff      1 4 dpd 0.0 0.0 0.0 0.25 1.0
pair_coeff      1 5 dpd 0.0 0.0 0.0 0.25 1.0
pair_coeff      2 2 dpd 2.5 10.0 1.414 0.2 1.0
pair_coeff      2 3 dpd 2.5 10.0 1.414 0.2 1.0
pair_coeff      2 4 dpd 0.0 0.0 0.0 0.25 1.0
pair_coeff      2 5 dpd 0.0 0.0 0.0 0.25 1.0
pair_coeff      3 3 dpd 10.0 10.0 1.414 0.2 1.0
pair_coeff      3 4 dpd 0.0 0.0 0.0 0.25 1.0
pair_coeff      3 5 dpd 0.0 0.0 0.0 0.25 1.0
pair_coeff      4 4 dpd 0.0 0.0 0.0 0.25 1.0
pair_coeff      4 5 dpd 0.0 0.0 0.0 0.25 1.0
pair_coeff      5 5 dpd 0.0 0.0 0.0 0.25 1.0
pair_coeff      2 2 dpd/misc 2 5.0 2.0 1.0 1.0
pair_coeff      2 3 dpd/misc 2 5.0 2.0 1.0 1.0
pair_coeff      3 3 dpd/misc 2 5.0 2.0 0.95 1.0
#pair_coeff      1 1 dpd/misc 4 0.0 20.0 2.0 0.2 1.58 11
include         coeff.in
#             i j a     ga     si    s1    rc   rcc   Ri  Di    s2
pair_coeff    1 1 cc  0.00  0.00  0.00  0.40  1.58  1.00  0.00	1.730E-02	2.00	0.00	1.501E-02	2.00	0.00	8.867E-03	2.00	0.00	5.995E-03	2.00	0.00	8.508E-03	2.00	0.00	1.501E-02	2.00	0.00	2.125E-02	2.00	0.00	1.501E-02	2.00	0.00	1.802E-02	2.00	0.00	1.350E-02	2.00	0.00	3.662E-03	2.00	0.00	5.924E-03	2.00	0.00	1.274E-02	2.00	0.00	9.047E-03	2.00	0.00	1.479E-02	2.00	0.00	1.741E-02	2.00	0.00	1.454E-02	2.00	0.00	1.432E-02	2.00	0.00	1.569E-02	2.00	0.00	4.000E-04	2.00	0.00	8.710E-02	2.00	0.00	0.000E+00 2.00  0.00  0.000E+00 2.00
pair_coeff    1 2 cc  0.00  0.00  0.00  0.40  1.58  1.00  0.00	1.730E-02	2.00	0.00	1.501E-02	2.00	0.00	8.867E-03	2.00	0.00	5.995E-03	2.00	0.00	8.508E-03	2.00	0.00	1.501E-02	2.00	0.00	2.125E-02	2.00	0.00	1.501E-02	2.00	0.00	1.802E-02	2.00	0.00	1.350E-02	2.00	0.00	3.662E-03	2.00	0.00	5.924E-03	2.00	0.00	1.274E-02	2.00	0.00	9.047E-03	2.00	0.00	1.479E-02	2.00	0.00	1.741E-02	2.00	0.00	1.454E-02	2.00	0.00	1.432E-02	2.00	0.00	1.569E-02	2.00	0.00	4.000E-04	2.00	0.00	8.710E-02	2.00	0.00	0.000E+00 2.00  0.00  0.000E+00 2.00

#time integrater
fix		1  move nve
fix		2  chemical cc/verlet x 0.0 initial_cc.dat
#add reaction
fix		31 solvent cc/reaction 2 33 25 65 0 react_rates.dat
fix		32 platelet cc/reaction 3 33 25 65 0 react_rates.dat
#add body force to drive the flow + bounce-back + no-slip
fix     40 solvent solid/bound 0 bc_channel.dat
fix     41 rbc solid/bound 0 bc_channel_rbc.dat
fix     42 platelet solid/bound 0 bc_channel_plat.dat
fix		43 solvent solid/bound 1 bc_channel_cc.dat 18
fix     7  platelet com/gyrat 100 1 1 0 data/traj/plat 1 3 SE # compute bond formation
fix		8  move addforce 0 0.5 0.0 0.0

variable c_cut    equal 0.6
variable b_cut    equal 0.6
variable ks       equal 9.1e3
variable r0       equal 0.128
variable kf0      equal 1.18e-3
variable sigf     equal 1.8e-3
variable kr0      equal 5.0e-7
variable sigr     equal 1.62e-3
variable T        equal 0.1

fix     91 adh bond/create/AD 2 4 0.6 3 9100 0.128 0.00118 0.0018 0.1 10 5 1 31821 catch
fix     92 adh bond/break/AD 0.6 3 9100 0.128 5e-07 0.00162 0.1 32556 slip
#fix     93 platelet bond/create/AD 2 2 0.5 4 2.222e5 0.0 1.18 1.31e-3 0.1 10 1 1 1354 catch
#fix     94 platelet bond/break/AD 0.3 4 2.222e4 0.0 5.0e-7 1.62e-3 0.1 3098 slip
fix		101 platelet molecule
fix		102 cells influx 0.41552 1000 3 2 5 1.0 bank 7 y -5 6.5 0 20 -10 10

#statistics
fix             11 solvent stat/velT box 100 40 10 0 1 50000 data/velT  9   #9  for Thrombin
fix             12 solvent stat/velT box 100 40 10 0 1 50000 data/velT 10   #10 for Prothrombin
fix             13 solvent stat/velT box 100 40 10 0 1 50000 data/velT 11   #11 for Fibrin
fix             14 solvent stat/velT box 100 40 10 0 1 50000 data/velT 12   #12 for Fibrinogen
fix             15 solvent stat/velT box 100 40 10 0 1 50000 data/velT 15   #15 for Anti Thrombin-III
fix             16 solvent stat/velT box 100 40 10 0 1 50000 data/velT 21   #21 for ADP
fix             17 platelet stat/dens box 100 40 10 0 1 50000 data/den_plat
fix             18 move stat/all box 30 40 20 0 1 2000 30 60 0 20 -10 10
fix             20 solvent stat/velT box 100 40 10 0 1 50000 data/velT 1    #1 for IXa
fix             21 solvent stat/velT box 100 40 10 0 1 50000 data/velT 2    #2 for IX
fix             22 solvent stat/velT box 100 40 10 0 1 50000 data/velT 7    #7 for Xa
fix             23 solvent stat/velT box 100 40 10 0 1 50000 data/velT 8    #8 for X

reset_timestep	0
timestep        0.001

compute         mythermo solvent temp/partial 0 1 1
thermo_modify   temp mythermo flush yes lost warn
thermo          500

dump            1 rbc atom 20000 data/dump.rbc.lammpstrj
dump            2 adh atom 1000 data/dump.plat.lammpstrj
dump            3 rbc custom 20000 data/rbc.lammpstrj id mol x y z
dump            4 platelet custom 1000 data/plat.lammpstrj id mol x y z

restart		50000 data/restart
run 		2000010
Step Temp E_pair E_mol TotEng Press
0    0.1003595    7.1279812    915620.45    915627.64   -403.98894
Averages over the last 2001 of 4002 rows, steps 1000500 to 2000010:
Temp E_pair E_mol TotEng Press
0.100248 7.22469 939215 939222 -404.854
Loop time of 154300 on 640 procs for 2000010 steps with 264470 atoms

Pair  time (%) = 50973.9 (33.0357)
Bond  time (%) = 44024.1 (28.5316)
Neigh time (%) = 312.169 (0.202314)
Comm  time (%) = 11211.2 (7.26585)
Outpt time (%) = 274.852 (0.178129)
Other time (%) = 47503.4 (30.7865)
